Circuit: * C:\Users\Florian\Documents\X_Travail\Cours\ENIB\S7\IPS\control-systems-for-heating-resistors\PCB\sim\tension_divider.asc

Direct Newton iteration for .op point succeeded.

Date: Mon Apr 08 12:19:38 2024
Total elapsed time: 0.056 seconds.

tnom = 27
temp = 27
method = modified trap
totiter = 2099
traniter = 2096
tranpoints = 1049
accept = 1049
rejected = 0
matrix size = 7
fillins = 0
solver = Normal
Matrix Compiler1:      12 opcodes  0.1/[0.0]/0.0
Matrix Compiler2: off  [0.1]/0.1/0.1

